FoamFile
{
	version	2.0;
	format	binary;
	class	volScalarField;
	location	"0/heatsink";
	object	T;
	arch	"LSB;label=32;scalar=64";
}
dimensions	[0 0 0 1 0 0 0];
internalField	uniform 300;
boundaryField
{
	heatsink_to_chip
	{
		type	compressible::turbulentTemperatureRadCoupledMixed;
		value	uniform 300;
		qrNbr	none;
		qr	none;
		neighbourFieldName	T;
		alphaAni	Anialpha;
		kappaMethod	solidThermo;
		kappa	none;
		Tnbr	T;
		thicknessLayers	();
		kappaLayers	();
	}
	heatsink_to_enclosure
	{
		type	compressible::turbulentTemperatureRadCoupledMixed;
		value	uniform 300;
		qrNbr	none;
		qr	none;
		neighbourFieldName	T;
		alphaAni	Anialpha;
		kappaMethod	solidThermo;
		kappa	none;
		Tnbr	T;
	}
}
